<net version="1.9">
    <!-- Placeholder network file.
         Replace with a real OSMnx/SUMO-generated network when SUMO is available. -->
    </net>
    