<additional>
    <laneAreaDetector id="det_main" lane="main_0" pos="50" endPos="150" freq="60"/>
    </additional>
    