<nodes>
    <node id="n0" x="0" y="0" type="priority"/>
    <node id="n1" x="3000" y="0" type="priority"/>
    <node id="n2" x="4200" y="1200" type="priority"/>
    </nodes>
    