<configuration>
    <input>
        <net-file value="scenario.net.xml"/>
        <route-files value="scenario.rou.xml"/>
        <additional-files value="scenario.add.xml"/>
    </input>
    <time>
        <begin value="0"/>
        <end value="5400"/>
    </time>
    </configuration>
    